Circuit: * C:\users\thatthetheos\My Documents\Université\BAC1\Q2.PROJET\Rapport préjury\LTSpice\oscill_IdealOpAmp.asc

Direct Newton iteration for .op point succeeded.

Date: Mon Apr 29 21:44:22 2019
Total elapsed time: 0.306 seconds.

tnom = 27
temp = 27
method = modified trap
totiter = 16156
traniter = 16140
tranpoints = 4984
accept = 3842
rejected = 1142
matrix size = 24
fillins = 15
solver = Normal
Thread vector: 14.7/7.4[2] 2.6/2.7[1] 2.3/2.2[1] 0.7/1.8[1]  2592/500
Matrix Compiler1: 3.35 KB object code size  1.3/0.9/[0.7]
Matrix Compiler2: 2.65 KB object code size  0.8/0.9/[0.8]

